<?xml version="1.0" encoding="UTF-8"?>

<!-- generated on Wed Sep 21 21:12:56 2016 by SUMO duarouter Version 0.24.0
<?xml version="1.0" encoding="UTF-8"?>

<configuration >

    <input>
        <net-file value="beijing-city.net.xml"/>
        <flow-files value="beijing.flow.xml"/>
    </input>

    <output>
        <output-file value="beijing.rou.xml"/>
    </output>

</configuration>
-->

<routes >
	<route id="route0" edges="-51787#0 -51787#1 -51787#2 -51787#3 -51891#0 -51891#1 -51891#2 -51685 -51893 -51627 -51937 -51953 -51811 -51749 -51675 -51941#0 -51941#1 -51941#2 -51979#2 -52003#0 -52003#1 -51669 -51805#0 -51805#1 -51805#2 -51805#3 -51805#4 -51697#0 -51697#1 -51731#0 -51731#1 -51731#2 -51661 -51671#0 -51671#1 -51671#2 -51671#3 -51763#0 -51763#1 -51763#2"/>
	<route id="route1" edges="-51929#0 -51929#1 -51625 -51611#0 -51611#1 -51605 -51611#3 -51611#4 -51611#5 -51923#0 -51591#2 -51591#3 -51591#4 -51435 -51553#0 -51553#1 -51553#2 -51493 -51561#0 -51561#1 -51561#2 -51573#0 -51573#1 -51573#2 -51557#0 -51557#1 -51565 -51307#0 -51307#1"/>
	<route id="route2" edges="-51423#0 -51423#1 -51433 -51419#0 -51419#1 -51331#0 -51331#1 -51305 -51411#0 -51411#1 -51411#2 -51559#0 -51559#1 -51559#2 -51329 -51437 -51499#0 -51499#1 -51499#2 -51441 -51269#0 -51269#1 -51269#2 -51281#0 -51281#1 -51255#0 -51255#1 -51255#2 -51457 -51461#0 -51461#1 -51449 -51453 -51571 -51467#0 -51467#1 -51465 -51551 -51313"/>
	<route id="route3" edges="-51967 --51859 --51865#1 -51613#0 -51613#1 -51613#2 -51553#2 -51493 -51561#0 -51561#1 -51561#2 -51573#0 -51573#1 -51573#2 -51557#0 -51557#1 -51565 -51307#0 -51307#1"/>
	<route id="route4" edges="-51979#0 -51979#1 -51979#2 -52003#0 -52003#1 -51669 -51805#0 -52063 -51373#0 -51373#1 -51387#0 -51387#1 -51387#2 -51527#0 -51527#1 -51527#2 -51253#0 -51253#1 -51601#0 -51601#1 -51591#0 -51591#1 -51591#2 -51591#3 -51591#4 -51435 -51553#0 -51553#1 -51613#3 -51613#4 -51613#5 -52057 -51935#0 -51935#1 -51935#2 -52021 -51873 -51851 -51991 -51755#0 -51255#2 -51457 -51461#0 -51461#1 -51449 -51453 -51571 -51467#0 -51467#1 -51465 -51551 -51313"/>
	<route id="route5" edges="-51321#0 -51321#1 -51563 -51485#0 -51485#1 -51485#2 -51485#3 -51339#2 -51555 -52051 --52053 -51297#1 -51585#0 -51585#1 -51585#2 -51585#3 -51471 -51337 -51377#0 -51377#1 -51377#2 -51583#0 -51583#1 -51583#2 -51383 -51375#0 -52009#1 -51539#0 -51539#1 -51531 -51543#0 -51543#1 -51535 -51311 -51445 -51545#0 -51545#1 -51403 -51303 -51401 -51367 -51345 -51359 -51299"/>

	<route id="route6" edges="-51397 -51349#0 -51349#1 -51291#1 -51569#0 -51569#1 -51569#2 -51567 -51517#0 -51517#1 -51517#2 -51319#0 -51613#4 -51613#5 -52057 -51935#0 -51935#1 -51935#2 -52021 -51873 -51851 -51991 -51755#0 -51755#1 -51381#1 -51381#2 -51415 -51521 -51451 -51475 --52009#1 --52009#0 -51421 -51503 -51505#0 -51505#1 -51505#2 -51429#0 -51429#1 -51455 -51369 -51459 -51501 -51413 -51289 -51341"/>
	<route id="route7" edges="-51397 -51349#0 -51349#1 -51291#1 -51569#0 -51569#1 -51569#2 -51567 -51517#0 -51517#1 -51517#2 -51319#0 -51613#4 -51613#5 -52057 -51935#0 -51935#1 -51935#2 -52021 -51873 -51851 -51991 -51755#0 -51755#1 -51381#1 -51381#2 -51415 -51521 -51451 -51475 -52011 -51317#0 -51317#1 -51317#2 -51317#3 -51513 -51481#0 -51481#1 -51343#0 -51343#1 -51533 -51541 -51487 -51547 -51587 -51443"/>
	<route id="route8" edges="-51787#1 -51787#2 -51787#3 -51891#0 -51891#1 -51891#2 -51685 -51893 -51627 -51937 -51953 -51811 -51749 -51675 -51941#0 -51941#1 -51941#2 -51979#2 -52003#0 -52003#1 -51669 -51805#0 -52063 -51373#0 -51373#1 -51387#0 -51387#1 -51387#2 -51527#0 -51527#1 -51527#2 -51253#0 -51253#1 -51601#0 -51601#1 -51591#0 -51591#1 -51591#2 -51591#3 -51591#4 -51435 -51553#0 -51553#1 -51613#3 -51613#4 -51613#5 -52057 -51935#0 -51935#1 -51935#2 -52021 -51873 -51851 -51991 -51755#0 -51755#1 -51755#2"/>
	<route id="route9" edges="-51787#1 -51787#2 -51787#3 -51891#0 -51891#1 -51891#2 -51685 -51893 -51627 -51937 -51953 -51811 -51749 -51675 -51941#0 -51941#1 -51941#2 -51979#2 -52003#0 -52003#1 -51669 -51805#0 -51805#1 -51805#2 -51805#3 -51805#4 -51697#0 -51697#1 -51731#0 -51731#1 -51731#2 -51661 -51671#0 -51671#1 -51671#2 -51671#3 -51763#0 -51331#1 -51305 -51411#0 -51411#1 -51411#2 -51559#0 -51559#1 -51559#2 -51329 -51437 -51499#0 -51499#1 -51499#2 -51271#0 -51271#1 -51271#2 -51577 -51333 -51575#0 -51575#1 -51265#0 -51265#1 -51277 -51355#0 -51355#1 -51595#0 -51595#1 -51595#2"/>

 
</routes>
